
**** 12/18/19 10:05:41 ************** PSpice Lite (Jan 2005) *****************

 ** Profile: "SCHEMATIC1-schema"  [ C:\4.A\samsula\TEM_sche\prakmat\snimac_pre_char-pspicefiles\schematic1\schema.sim ] 


 ****     CIRCUIT DESCRIPTION


******************************************************************************




** Creating circuit file "schema.cir" 
** WARNING: THIS AUTOMATICALLY GENERATED FILE MAY BE OVERWRITTEN BY SUBSEQUENT SIMULATIONS

*Libraries: 
* Profile Libraries :
* Local Libraries :
* From [PSPICE NETLIST] section of C:\OrCAD\OrCAD_10.5_Demo\tools\PSpice\PSpice.ini file:
.lib "nom.lib" 

*Analysis directives: 
.AC DEC 20 20 4000
.PROBE V(alias(*)) I(alias(*)) W(alias(*)) D(alias(*)) NOISE(alias(*)) 
.INC "..\SCHEMATIC1.net" 



**** INCLUDING SCHEMATIC1.net ****
* source SNIMAC_PRE_CHAR
V_V1         VIN 0  AC 20mV
+SIN 0V 5V 10k 0 0 0
C_C2         N00247 VOUT  2n  
C_C1         N03477 N00247  1u  
E_U1         VOUT 0 VALUE {LIMIT(V(0,N00247)*1E6,-15V,+15V)} _U1 0 N00247 1G

R_R2         VIN N03477  4k7  
R_R4         N00247 VOUT  22k  

**** RESUMING schema.cir ****
.END

**** 12/18/19 10:05:41 ************** PSpice Lite (Jan 2005) *****************

 ** Profile: "SCHEMATIC1-schema"  [ C:\4.A\samsula\TEM_sche\prakmat\snimac_pre_char-pspicefiles\schematic1\schema.sim ] 


 ****     SMALL SIGNAL BIAS SOLUTION       TEMPERATURE =   27.000 DEG C


******************************************************************************



 NODE   VOLTAGE     NODE   VOLTAGE     NODE   VOLTAGE     NODE   VOLTAGE


(  VIN)    0.0000  ( VOUT)    0.0000  (N00247)    0.0000 (N03477)    0.0000 




    VOLTAGE SOURCE CURRENTS
    NAME         CURRENT

    V_V1         0.000E+00

    TOTAL POWER DISSIPATION   0.00E+00  WATTS



          JOB CONCLUDED

**** 12/18/19 10:05:41 ************** PSpice Lite (Jan 2005) *****************

 ** Profile: "SCHEMATIC1-schema"  [ C:\4.A\samsula\TEM_sche\prakmat\snimac_pre_char-pspicefiles\schematic1\schema.sim ] 


 ****     JOB STATISTICS SUMMARY


******************************************************************************



  Total job time (using Solver 1)   =         .02
